LTspice 24.0.11 for Windows
Circuit: * C:\Users\erizo\Desktop\JR2-IMSC\ltspice\parametric_oscillator.asc
Start Time: Wed Jan 15 20:20:13 2025
solver = Normal
Maximum thread count: 8
tnom = 27
temp = 27
method = modified trap
Direct Newton iteration for .op point succeeded.
Heightened Def Con from 2.45809e-07 to 2.45809e-07
Total elapsed time: 45.085 seconds.

