LTspice 24.0.11 for Windows
Circuit: * C:\Users\erizo\Desktop\JR2-IMSC\ltspice\parametric_oscillator.asc
Start Time: Fri Jan 24 16:00:06 2025
solver = Normal
Maximum thread count: 8
tnom = 27
temp = 27
method = modified trap
Direct Newton iteration for .op point succeeded.
Total elapsed time: 1.161 seconds.

