LTspice 24.0.11 for Windows
Circuit: * C:\Users\erizo\Desktop\JR2-IMSC\ltspice\parametric_oscillator.asc
Start Time: Wed Jan 22 20:40:19 2025
solver = Normal
Maximum thread count: 8



Direct Newton iteration for .op point succeeded.
.step wp=0



.step wp=1500



.step wp=2020



.step wp=3853



.step wp=6574
tnom = 27
temp = 27
method = modified trap
.step wp=7384
Total elapsed time: 0.999 seconds.

